1a0q_ligand
     RDKit          3D

 23 23  0  0  0  0  0  0  0  0999 V2000
   13.7418   20.1166   58.7180 C   0  0  2  0  0  0  0  0  0  0  0  0
   13.0803   19.1975   57.7052 C   0  0  0  0  0  0  0  0  0  0  0  0
   12.5581   17.9345   58.3349 C   0  0  0  0  0  0  0  0  0  0  0  0
   11.8304   17.1617   57.2506 C   0  0  0  0  0  0  0  0  0  0  0  0
   12.7850   16.5113   56.2759 C   0  0  0  0  0  0  0  0  0  0  0  0
   15.0461   22.2928   54.4219 C   0  0  0  0  0  0  0  0  0  0  0  0
   15.7603   23.0972   53.5671 C   0  0  0  0  0  0  0  0  0  0  0  0
   15.9391   24.4255   53.8683 C   0  0  0  0  0  0  0  0  0  0  0  0
   15.3835   24.9144   55.0431 C   0  0  0  0  0  0  0  0  0  0  0  0
   14.6603   24.0987   55.9080 C   0  0  0  0  0  0  0  0  0  0  0  0
   14.4861   22.7665   55.5971 C   0  0  0  0  0  0  0  0  0  0  0  0
   13.2063   21.0734   60.9906 C   0  0  0  0  0  0  0  0  0  0  0  0
   10.8366   21.3221   61.6796 C   0  0  0  0  0  0  0  0  0  0  0  0
   12.2493   21.7385   61.9118 C   0  0  0  0  0  0  0  0  0  0  0  0
   10.6597   19.9372   62.1827 C   0  0  0  0  0  0  0  0  0  0  0  0
   14.7053   22.6222   58.8685 O   0  0  0  0  0  0  0  0  0  0  0  0
   16.1202   20.9889   57.4761 O   0  0  0  0  0  0  0  0  0  0  0  0
   13.7653   21.9475   56.4562 O   0  0  0  0  0  0  0  0  0  0  0  0
   14.4219   21.0255   61.3075 O   0  0  0  0  0  0  0  0  0  0  0  0
   11.6489   19.1845   62.3622 O   0  0  0  0  0  0  0  0  0  0  0  0
    9.3807   19.4367   62.4697 O   0  0  0  0  0  0  0  0  0  0  0  0
   12.8353   20.4881   59.7745 N   0  0  0  0  0  0  0  0  0  0  0  0
   14.5408   21.4706   57.9037 P   0  0  1  0  0  5  0  0  0  0  0  0
  1 23  1  0
  1 22  1  1
  1  2  1  0
  2  3  1  6
  3  4  1  6
  4  5  1  6
 22 12  1  0
 12 19  2  0
 14 12  1  1
 14 13  1  0
 13 15  1  6
 15 20  2  0
 15 21  1  0
 23 16  2  0
 23 17  1  6
 23 18  1  0
 18 11  1  0
 11 10  1  0
 11  6  2  0
  6  7  1  0
  7  8  2  0
  8  9  1  0
  9 10  2  0
M  END
$$$$
