1a0q_ligand
     RDKit          3D

 23 23  0  0  0  0  0  0  0  0999 V2000
   13.0925   19.2838   58.6775 C   0  0  2  0  0  0  0  0  0  0  0  0
   12.0449   18.5456   57.8615 C   0  0  0  0  0  0  0  0  0  0  0  0
   11.7321   17.1870   58.4278 C   0  0  0  0  0  0  0  0  0  0  0  0
   10.9993   16.4107   57.3494 C   0  0  0  0  0  0  0  0  0  0  0  0
   11.3214   16.9187   55.9628 C   0  0  0  0  0  0  0  0  0  0  0  0
   15.7172   22.9341   56.6043 C   0  0  0  0  0  0  0  0  0  0  0  0
   16.2928   23.6511   55.5833 C   0  0  0  0  0  0  0  0  0  0  0  0
   17.1549   23.0292   54.7132 C   0  0  0  0  0  0  0  0  0  0  0  0
   17.4171   21.6785   54.8996 C   0  0  0  0  0  0  0  0  0  0  0  0
   16.8335   20.9534   55.9340 C   0  0  0  0  0  0  0  0  0  0  0  0
   15.9694   21.5864   56.8026 C   0  0  0  0  0  0  0  0  0  0  0  0
   13.4562   19.5822   61.1565 C   0  0  0  0  0  0  0  0  0  0  0  0
   11.6642   20.3671   62.6811 C   0  0  0  0  0  0  0  0  0  0  0  0
   12.9346   19.5983   62.5475 C   0  0  0  0  0  0  0  0  0  0  0  0
   11.6542   21.0442   64.0016 C   0  0  0  0  0  0  0  0  0  0  0  0
   13.1426   20.6907   56.3869 O   0  0  0  0  0  0  0  0  0  0  0  0
   13.0390   22.1009   58.5338 O   0  0  0  0  0  0  0  0  0  0  0  0
   15.3840   20.8682   57.8368 O   0  0  0  0  0  0  0  0  0  0  0  0
   14.6997   19.6057   60.9731 O   0  0  0  0  0  0  0  0  0  0  0  0
   10.5729   21.3652   64.5541 O   0  0  0  0  0  0  0  0  0  0  0  0
   12.8549   21.3416   64.6638 O   0  0  0  0  0  0  0  0  0  0  0  0
   12.6393   19.5419   60.0207 N   0  0  0  0  0  0  0  0  0  0  0  0
   13.6825   20.7029   57.7985 P   0  0  1  0  0  5  0  0  0  0  0  0
  1 23  1  0
  1 22  1  1
  1  2  1  0
  2  3  1  6
  3  4  1  6
  4  5  1  6
 22 12  1  0
 12 19  2  0
 14 12  1  1
 14 13  1  0
 13 15  1  6
 15 20  2  0
 15 21  1  0
 23 16  2  0
 23 17  1  1
 23 18  1  0
 18 11  1  0
 11 10  1  0
 11  6  2  0
  6  7  1  0
  7  8  2  0
  8  9  1  0
  9 10  2  0
M  END
$$$$
