1a0q_ligand
     RDKit          3D

 23 23  0  0  0  0  0  0  0  0999 V2000
   13.8105   19.7179   58.6684 C   0  0  2  0  0  0  0  0  0  0  0  0
   13.1190   18.8034   57.6715 C   0  0  0  0  0  0  0  0  0  0  0  0
   12.5337   17.5819   58.3269 C   0  0  0  0  0  0  0  0  0  0  0  0
   11.5183   16.9993   57.3614 C   0  0  0  0  0  0  0  0  0  0  0  0
   11.0868   18.0009   56.3150 C   0  0  0  0  0  0  0  0  0  0  0  0
   15.9326   22.4670   56.1608 C   0  0  0  0  0  0  0  0  0  0  0  0
   16.7412   22.9563   55.1634 C   0  0  0  0  0  0  0  0  0  0  0  0
   17.8748   23.6613   55.4871 C   0  0  0  0  0  0  0  0  0  0  0  0
   18.1669   23.8570   56.8304 C   0  0  0  0  0  0  0  0  0  0  0  0
   17.3472   23.3611   57.8396 C   0  0  0  0  0  0  0  0  0  0  0  0
   16.2113   22.6545   57.5048 C   0  0  0  0  0  0  0  0  0  0  0  0
   13.8997   19.4190   61.1723 C   0  0  0  0  0  0  0  0  0  0  0  0
   11.7602   19.1755   62.4033 C   0  0  0  0  0  0  0  0  0  0  0  0
   13.2425   19.0191   62.4431 C   0  0  0  0  0  0  0  0  0  0  0  0
   11.4307   20.6184   62.5115 C   0  0  0  0  0  0  0  0  0  0  0  0
   13.8221   21.3182   56.5079 O   0  0  0  0  0  0  0  0  0  0  0  0
   12.6540   22.2899   58.5814 O   0  0  0  0  0  0  0  0  0  0  0  0
   15.3892   22.1572   58.5074 O   0  0  0  0  0  0  0  0  0  0  0  0
   15.1471   19.5746   61.1555 O   0  0  0  0  0  0  0  0  0  0  0  0
   11.9710   21.4623   61.7545 O   0  0  0  0  0  0  0  0  0  0  0  0
   10.5062   21.0730   63.4641 O   0  0  0  0  0  0  0  0  0  0  0  0
   13.2084   19.6367   59.9749 N   0  0  0  0  0  0  0  0  0  0  0  0
   13.9624   21.3553   58.0122 P   0  0  1  0  0  5  0  0  0  0  0  0
  1 23  1  0
  1 22  1  1
  1  2  1  0
  2  3  1  6
  3  4  1  6
  4  5  1  6
 22 12  1  0
 12 19  2  0
 14 12  1  1
 14 13  1  0
 13 15  1  6
 15 20  2  0
 15 21  1  0
 23 16  2  0
 23 17  1  1
 23 18  1  0
 18 11  1  0
 11 10  1  0
 11  6  2  0
  6  7  1  0
  7  8  2  0
  8  9  1  0
  9 10  2  0
M  END
$$$$
