1a0q_ligand
     RDKit          3D

 23 23  0  0  0  0  0  0  0  0999 V2000
   13.5282   20.0125   58.6527 C   0  0  2  0  0  0  0  0  0  0  0  0
   12.7688   19.0302   57.7772 C   0  0  0  0  0  0  0  0  0  0  0  0
   12.8477   17.6208   58.2981 C   0  0  0  0  0  0  0  0  0  0  0  0
   11.7780   16.8182   57.5811 C   0  0  0  0  0  0  0  0  0  0  0  0
   10.8906   17.6901   56.7228 C   0  0  0  0  0  0  0  0  0  0  0  0
   16.2596   21.7542   54.6330 C   0  0  0  0  0  0  0  0  0  0  0  0
   16.6256   22.6912   53.6971 C   0  0  0  0  0  0  0  0  0  0  0  0
   16.6410   24.0230   54.0334 C   0  0  0  0  0  0  0  0  0  0  0  0
   16.2808   24.3794   55.3262 C   0  0  0  0  0  0  0  0  0  0  0  0
   15.9103   23.4295   56.2732 C   0  0  0  0  0  0  0  0  0  0  0  0
   15.8979   22.0949   55.9262 C   0  0  0  0  0  0  0  0  0  0  0  0
   13.3227   20.2957   61.1516 C   0  0  0  0  0  0  0  0  0  0  0  0
   11.5455   20.0422   62.8630 C   0  0  0  0  0  0  0  0  0  0  0  0
   12.6464   20.8951   62.3306 C   0  0  0  0  0  0  0  0  0  0  0  0
   11.9445   19.5272   64.1964 C   0  0  0  0  0  0  0  0  0  0  0  0
   12.9519   21.8565   56.7828 O   0  0  0  0  0  0  0  0  0  0  0  0
   14.3392   22.7123   58.7706 O   0  0  0  0  0  0  0  0  0  0  0  0
   15.5289   21.1423   56.8668 O   0  0  0  0  0  0  0  0  0  0  0  0
   14.4285   19.7198   61.3125 O   0  0  0  0  0  0  0  0  0  0  0  0
   11.2301   18.6937   64.8065 O   0  0  0  0  0  0  0  0  0  0  0  0
   13.1311   19.9610   64.8066 O   0  0  0  0  0  0  0  0  0  0  0  0
   12.7994   20.3318   59.8539 N   0  0  0  0  0  0  0  0  0  0  0  0
   14.0626   21.4094   57.7051 P   0  0  1  0  0  5  0  0  0  0  0  0
  1 23  1  0
  1 22  1  1
  1  2  1  0
  2  3  1  6
  3  4  1  6
  4  5  1  6
 22 12  1  0
 12 19  2  0
 14 12  1  1
 14 13  1  0
 13 15  1  6
 15 20  2  0
 15 21  1  0
 23 16  2  0
 23 17  1  1
 23 18  1  0
 18 11  1  0
 11 10  1  0
 11  6  2  0
  6  7  1  0
  7  8  2  0
  8  9  1  0
  9 10  2  0
M  END
$$$$
