1a0q_ligand
     RDKit          3D

 23 23  0  0  0  0  0  0  0  0999 V2000
   13.3863   19.1589   58.4870 C   0  0  2  0  0  0  0  0  0  0  0  0
   12.5332   18.4115   57.4761 C   0  0  0  0  0  0  0  0  0  0  0  0
   11.5293   17.5044   58.1347 C   0  0  0  0  0  0  0  0  0  0  0  0
   10.8308   16.7334   57.0302 C   0  0  0  0  0  0  0  0  0  0  0  0
   11.7987   16.2397   55.9796 C   0  0  0  0  0  0  0  0  0  0  0  0
   16.4712   22.6620   57.5074 C   0  0  0  0  0  0  0  0  0  0  0  0
   17.3552   23.5614   56.9620 C   0  0  0  0  0  0  0  0  0  0  0  0
   16.8825   24.6604   56.2868 C   0  0  0  0  0  0  0  0  0  0  0  0
   15.5081   24.8249   56.1783 C   0  0  0  0  0  0  0  0  0  0  0  0
   14.6137   23.9133   56.7310 C   0  0  0  0  0  0  0  0  0  0  0  0
   15.0978   22.8131   57.4070 C   0  0  0  0  0  0  0  0  0  0  0  0
   12.6531   19.4854   60.8792 C   0  0  0  0  0  0  0  0  0  0  0  0
   11.4417   19.4903   63.0436 C   0  0  0  0  0  0  0  0  0  0  0  0
   12.0043   20.3090   61.9317 C   0  0  0  0  0  0  0  0  0  0  0  0
   12.5083   19.2548   64.0482 C   0  0  0  0  0  0  0  0  0  0  0  0
   15.9390   19.8585   58.0146 O   0  0  0  0  0  0  0  0  0  0  0  0
   14.3704   20.0101   55.9836 O   0  0  0  0  0  0  0  0  0  0  0  0
   14.2103   21.8997   57.9605 O   0  0  0  0  0  0  0  0  0  0  0  0
   13.3057   18.4665   61.2205 O   0  0  0  0  0  0  0  0  0  0  0  0
   12.8816   18.0897   64.3320 O   0  0  0  0  0  0  0  0  0  0  0  0
   13.1248   20.3306   64.7048 O   0  0  0  0  0  0  0  0  0  0  0  0
   12.5830   19.7758   59.5118 N   0  0  0  0  0  0  0  0  0  0  0  0
   14.5196   20.2438   57.6666 P   0  0  1  0  0  5  0  0  0  0  0  0
  1 23  1  0
  1 22  1  1
  1  2  1  0
  2  3  1  6
  3  4  1  6
  4  5  1  6
 22 12  1  0
 12 19  2  0
 14 12  1  1
 14 13  1  0
 13 15  1  6
 15 20  2  0
 15 21  1  0
 23 16  2  0
 23 17  1  6
 23 18  1  0
 18 11  1  0
 11 10  1  0
 11  6  2  0
  6  7  1  0
  7  8  2  0
  8  9  1  0
  9 10  2  0
M  END
$$$$
