1a0q_ligand
     RDKit          3D

 23 23  0  0  0  0  0  0  0  0999 V2000
   13.6945   18.7245   59.1827 C   0  0  2  0  0  0  0  0  0  0  0  0
   13.1765   18.0620   57.9173 C   0  0  0  0  0  0  0  0  0  0  0  0
   12.7716   16.6309   58.1460 C   0  0  0  0  0  0  0  0  0  0  0  0
   12.2926   16.0833   56.8144 C   0  0  0  0  0  0  0  0  0  0  0  0
   12.9167   16.8062   55.6430 C   0  0  0  0  0  0  0  0  0  0  0  0
   16.2721   21.9558   55.8400 C   0  0  0  0  0  0  0  0  0  0  0  0
   16.2782   23.1329   55.1312 C   0  0  0  0  0  0  0  0  0  0  0  0
   15.2955   24.0675   55.3503 C   0  0  0  0  0  0  0  0  0  0  0  0
   14.3172   23.7847   56.2941 C   0  0  0  0  0  0  0  0  0  0  0  0
   14.3121   22.5922   57.0113 C   0  0  0  0  0  0  0  0  0  0  0  0
   15.3027   21.6600   56.7844 C   0  0  0  0  0  0  0  0  0  0  0  0
   11.6904   19.4857   60.5135 C   0  0  0  0  0  0  0  0  0  0  0  0
   12.4616   21.2123   62.1185 C   0  0  0  0  0  0  0  0  0  0  0  0
   11.4553   20.1535   61.8195 C   0  0  0  0  0  0  0  0  0  0  0  0
   13.3708   20.7183   63.1822 C   0  0  0  0  0  0  0  0  0  0  0  0
   13.0638   21.2944   58.7061 O   0  0  0  0  0  0  0  0  0  0  0  0
   15.1310   20.9336   60.1910 O   0  0  0  0  0  0  0  0  0  0  0  0
   15.3028   20.4681   57.4969 O   0  0  0  0  0  0  0  0  0  0  0  0
   10.8969   19.7097   59.5645 O   0  0  0  0  0  0  0  0  0  0  0  0
   12.9193   20.1254   64.1932 O   0  0  0  0  0  0  0  0  0  0  0  0
   14.7580   20.9029   63.0822 O   0  0  0  0  0  0  0  0  0  0  0  0
   12.7547   18.6102   60.2688 N   0  0  0  0  0  0  0  0  0  0  0  0
   14.2519   20.3702   58.8423 P   0  0  1  0  0  5  0  0  0  0  0  0
  1 23  1  0
  1 22  1  1
  1  2  1  0
  2  3  1  6
  3  4  1  6
  4  5  1  6
 22 12  1  0
 12 19  2  0
 14 12  1  1
 14 13  1  0
 13 15  1  6
 15 20  2  0
 15 21  1  0
 23 16  2  0
 23 17  1  1
 23 18  1  0
 18 11  1  0
 11 10  1  0
 11  6  2  0
  6  7  1  0
  7  8  2  0
  8  9  1  0
  9 10  2  0
M  END
$$$$
