1a0q_ligand
     RDKit          3D

 23 23  0  0  0  0  0  0  0  0999 V2000
   13.3213   19.7903   58.8469 C   0  0  2  0  0  0  0  0  0  0  0  0
   13.1555   18.5512   57.9836 C   0  0  0  0  0  0  0  0  0  0  0  0
   11.7240   18.0936   57.9094 C   0  0  0  0  0  0  0  0  0  0  0  0
   11.6778   16.6785   58.4552 C   0  0  0  0  0  0  0  0  0  0  0  0
   13.0578   16.1327   58.7417 C   0  0  0  0  0  0  0  0  0  0  0  0
   15.6314   23.0172   56.2864 C   0  0  0  0  0  0  0  0  0  0  0  0
   16.4330   23.7359   55.4327 C   0  0  0  0  0  0  0  0  0  0  0  0
   15.9942   24.0231   54.1630 C   0  0  0  0  0  0  0  0  0  0  0  0
   14.7380   23.5701   53.7827 C   0  0  0  0  0  0  0  0  0  0  0  0
   13.9272   22.8422   54.6483 C   0  0  0  0  0  0  0  0  0  0  0  0
   14.3763   22.5588   55.9209 C   0  0  0  0  0  0  0  0  0  0  0  0
   11.7081   20.5375   60.6375 C   0  0  0  0  0  0  0  0  0  0  0  0
   12.6899   21.7908   62.5394 C   0  0  0  0  0  0  0  0  0  0  0  0
   11.8576   21.8567   61.3041 C   0  0  0  0  0  0  0  0  0  0  0  0
   13.0156   20.3702   62.8188 C   0  0  0  0  0  0  0  0  0  0  0  0
   14.9685   21.9036   59.0700 O   0  0  0  0  0  0  0  0  0  0  0  0
   15.6681   20.1521   57.3232 O   0  0  0  0  0  0  0  0  0  0  0  0
   13.5717   21.8328   56.7892 O   0  0  0  0  0  0  0  0  0  0  0  0
   11.2479   19.5714   61.2974 O   0  0  0  0  0  0  0  0  0  0  0  0
   12.2015   19.4548   62.5417 O   0  0  0  0  0  0  0  0  0  0  0  0
   14.2428   20.0170   63.4001 O   0  0  0  0  0  0  0  0  0  0  0  0
   12.0520   20.2982   59.3020 N   0  0  0  0  0  0  0  0  0  0  0  0
   14.3600   20.9772   58.0425 P   0  0  1  0  0  5  0  0  0  0  0  0
  1 23  1  0
  1 22  1  6
  1  2  1  0
  2  3  1  6
  3  4  1  6
  4  5  1  6
 22 12  1  0
 12 19  2  0
 14 12  1  1
 14 13  1  0
 13 15  1  6
 15 20  2  0
 15 21  1  0
 23 16  2  0
 23 17  1  6
 23 18  1  0
 18 11  1  0
 11 10  1  0
 11  6  2  0
  6  7  1  0
  7  8  2  0
  8  9  1  0
  9 10  2  0
M  END
$$$$
