1a0q_ligand
     RDKit          3D

 23 23  0  0  0  0  0  0  0  0999 V2000
   13.3907   19.8275   58.3089 C   0  0  2  0  0  0  0  0  0  0  0  0
   12.4196   19.2188   57.3115 C   0  0  0  0  0  0  0  0  0  0  0  0
   11.7035   18.0191   57.8701 C   0  0  0  0  0  0  0  0  0  0  0  0
   12.2261   16.8016   57.1304 C   0  0  0  0  0  0  0  0  0  0  0  0
   12.0121   16.9062   55.6379 C   0  0  0  0  0  0  0  0  0  0  0  0
   16.3437   24.1269   58.7531 C   0  0  0  0  0  0  0  0  0  0  0  0
   17.0271   25.2026   58.2395 C   0  0  0  0  0  0  0  0  0  0  0  0
   17.5240   25.1487   56.9600 C   0  0  0  0  0  0  0  0  0  0  0  0
   17.3146   23.9920   56.2210 C   0  0  0  0  0  0  0  0  0  0  0  0
   16.6224   22.9032   56.7423 C   0  0  0  0  0  0  0  0  0  0  0  0
   16.1273   22.9667   58.0278 C   0  0  0  0  0  0  0  0  0  0  0  0
   13.5329   20.0203   60.8207 C   0  0  0  0  0  0  0  0  0  0  0  0
   12.7533   19.3289   63.0715 C   0  0  0  0  0  0  0  0  0  0  0  0
   12.9382   20.4542   62.1110 C   0  0  0  0  0  0  0  0  0  0  0  0
   11.3762   18.7965   62.9217 C   0  0  0  0  0  0  0  0  0  0  0  0
   14.3791   21.1722   56.2008 O   0  0  0  0  0  0  0  0  0  0  0  0
   12.8948   22.5542   57.7804 O   0  0  0  0  0  0  0  0  0  0  0  0
   15.4358   21.8833   58.5536 O   0  0  0  0  0  0  0  0  0  0  0  0
   14.7519   19.7147   60.7852 O   0  0  0  0  0  0  0  0  0  0  0  0
   10.4112   19.3228   63.5292 O   0  0  0  0  0  0  0  0  0  0  0  0
   11.1210   17.6910   62.0963 O   0  0  0  0  0  0  0  0  0  0  0  0
   12.8120   19.9287   59.6245 N   0  0  0  0  0  0  0  0  0  0  0  0
   14.0780   21.3303   57.6734 P   0  0  1  0  0  5  0  0  0  0  0  0
  1 23  1  0
  1 22  1  1
  1  2  1  0
  2  3  1  6
  3  4  1  6
  4  5  1  6
 22 12  1  0
 12 19  2  0
 14 12  1  1
 14 13  1  0
 13 15  1  6
 15 20  2  0
 15 21  1  0
 23 16  2  0
 23 17  1  6
 23 18  1  0
 18 11  1  0
 11 10  1  0
 11  6  2  0
  6  7  1  0
  7  8  2  0
  8  9  1  0
  9 10  2  0
M  END
$$$$
